test/fixtures/synthetic_v35_remote_control.raw
@!IC,SBASE,REV,XFRRAT,NXFRAT,BASFRQ
0,  100.00, 35,     0,     1, 60.00
Synthetic fictional v35 remote voltage control case: the v33 network in the v35 record layout
Two generators and a VSC converter hold bus 3; a switched shunt and a FACTS device hold bus 7; transformers carry remote CONT of both signs and load drop compensation; the DC line names a commutating bus and a tap transformer
0 / END OF SYSTEM-WIDE DATA, BEGIN BUS DATA
@!   I,'NAME        ', BASKV, IDE,AREA,ZONE,OWNER, VM,        VA,    NVHI,   NVLO,   EVHI,   EVLO
     1,'BUSONE      ', 138.0000,3,   1,   1,   1,1.00000,   0.0000,1.10000,0.90000,1.10000,0.90000
     2,'BUSTWO      ', 138.0000,2,   1,   1,   1,1.01000,   0.0000,1.10000,0.90000,1.10000,0.90000
     3,'BUSTHREE    ', 138.0000,1,   1,   1,   1,1.02000,   0.0000,1.10000,0.90000,1.10000,0.90000
     4,'BUSFOUR     ', 138.0000,2,   1,   1,   1,1.00000,   0.0000,1.10000,0.90000,1.10000,0.90000
     5,'BUSFIVE     ', 138.0000,1,   1,   1,   1,1.00000,   0.0000,1.10000,0.90000,1.10000,0.90000
     6,'BUSSIX      ', 138.0000,1,   1,   1,   1,1.00000,   0.0000,1.10000,0.90000,1.10000,0.90000
     7,'BUSSEVEN    ', 138.0000,1,   1,   1,   1,1.00000,   0.0000,1.10000,0.90000,1.10000,0.90000
0 / END OF BUS DATA, BEGIN LOAD DATA
     3,'1 ',   1,   1,   1,    50.000,    10.000,     0.000,     0.000,     0.000,     0.000,   1,    1,  0,     0.000,     0.000,    0,'           V'
     5,'1 ',   1,   1,   1,    30.000,     5.000,     0.000,     0.000,     0.000,     0.000,   1,    1,  0,     0.000,     0.000,    0,'           V'
     7,'1 ',   1,   1,   1,    20.000,     5.000,     0.000,     0.000,     0.000,     0.000,   1,    1,  0,     0.000,     0.000,    0,'           V'
0 / END OF LOAD DATA, BEGIN FIXED SHUNT DATA
0 / END OF FIXED SHUNT DATA, BEGIN GENERATOR DATA
     1,'1 ',    80.000,     0.000,   100.000,  -100.000,1.00000,   0,   0,   100.000, 0.00000E+0, 1.00000E-1, 0.00000E+0, 0.00000E+0,1.00000,1,  100.0,   120.000,     0.000, 0,1,1.0000
     2,'1 ',    30.000,     0.000,    50.000,   -50.000,1.02000,   3,   0,   100.000, 0.00000E+0, 1.00000E-1, 0.00000E+0, 0.00000E+0,1.00000,1,   60.0,    50.000,     0.000, 0,1,1.0000
     2,'2 ',    10.000,     0.000,    20.000,   -20.000,1.01000,   2,   0,   100.000, 0.00000E+0, 1.00000E-1, 0.00000E+0, 0.00000E+0,1.00000,1,  100.0,    20.000,     0.000, 0,1,1.0000
     4,'1 ',    30.000,     0.000,    50.000,   -50.000,1.02000,   3,   0,   100.000, 0.00000E+0, 1.00000E-1, 0.00000E+0, 0.00000E+0,1.00000,1,   40.0,    50.000,     0.000, 0,1,1.0000
0 / END OF GENERATOR DATA, BEGIN BRANCH DATA
     1,     2,'1 ', 1.00000E-02, 1.00000E-01,0.02000,'BRANCH_1_2                              ', 500.00, 500.00, 500.00,   0.00,   0.00,   0.00,   0.00,   0.00,   0.00,   0.00,   0.00,   0.00, 0.00000, 0.00000, 0.00000, 0.00000,1,1,  1.00,   1,1.0000
     2,     3,'1 ', 1.00000E-02, 1.00000E-01,0.02000,'BRANCH_2_3                              ', 500.00, 500.00, 500.00,   0.00,   0.00,   0.00,   0.00,   0.00,   0.00,   0.00,   0.00,   0.00, 0.00000, 0.00000, 0.00000, 0.00000,1,1,  1.00,   1,1.0000
     3,     4,'1 ', 1.00000E-02, 1.00000E-01,0.02000,'BRANCH_3_4                              ', 500.00, 500.00, 500.00,   0.00,   0.00,   0.00,   0.00,   0.00,   0.00,   0.00,   0.00,   0.00, 0.00000, 0.00000, 0.00000, 0.00000,1,1,  1.00,   1,1.0000
     4,     5,'1 ', 1.00000E-02, 1.00000E-01,0.02000,'BRANCH_4_5                              ', 500.00, 500.00, 500.00,   0.00,   0.00,   0.00,   0.00,   0.00,   0.00,   0.00,   0.00,   0.00, 0.00000, 0.00000, 0.00000, 0.00000,1,1,  1.00,   1,1.0000
     5,     7,'1 ', 1.00000E-02, 1.00000E-01,0.02000,'BRANCH_5_7                              ', 500.00, 500.00, 500.00,   0.00,   0.00,   0.00,   0.00,   0.00,   0.00,   0.00,   0.00,   0.00, 0.00000, 0.00000, 0.00000, 0.00000,1,1,  1.00,   1,1.0000
0 / END OF BRANCH DATA, BEGIN SYSTEM SWITCHING DEVICE DATA
0 / END OF SYSTEM SWITCHING DEVICE DATA, BEGIN TRANSFORMER DATA
     3,     6,     0,'1 ',1,1,1, 0.00000E+0, 0.00000E+0,2,'XFMR_3_6    ',1,   1,1.0000,   0,1.0000,   0,1.0000,   0,1.0000,'            '
 1.00000E-3, 5.00000E-2,   100.00
1.00000,   0.000,   0.000,   200.00,   200.00,   200.00,   0.00,   0.00,   0.00,   0.00,   0.00,   0.00,   0.00,   0.00,   0.00, 1,     -3,   0, 1.10000, 0.90000, 1.05000, 0.95000,  33, 0, 0.01000, 0.02000,  0.000
1.00000,   0.000
     5,     6,     0,'1 ',1,1,1, 0.00000E+0, 0.00000E+0,2,'XFMR_5_6    ',1,   1,1.0000,   0,1.0000,   0,1.0000,   0,1.0000,'            '
 1.00000E-3, 5.00000E-2,   100.00
1.00000,   0.000,   0.000,   200.00,   200.00,   200.00,   0.00,   0.00,   0.00,   0.00,   0.00,   0.00,   0.00,   0.00,   0.00, 1,      7,   0, 1.10000, 0.90000, 1.05000, 0.95000,  33, 0, 0.00000, 0.00000,  0.000
1.00000,   0.000
     6,     7,     0,'2 ',1,1,1, 0.00000E+0, 0.00000E+0,2,'XFMR_6_7_DC ',1,   1,1.0000,   0,1.0000,   0,1.0000,   0,1.0000,'            '
 1.00000E-3, 5.00000E-2,   100.00
1.00000,   0.000,   0.000,   200.00,   200.00,   200.00,   0.00,   0.00,   0.00,   0.00,   0.00,   0.00,   0.00,   0.00,   0.00, 4,      0,   0, 1.10000, 0.90000,   400.00,   380.00,  33, 0, 0.00000, 0.00000,  0.000
1.00000,   0.000
     6,     7,     0,'3 ',1,1,1, 0.00000E+0, 0.00000E+0,2,'XFMR_6_7_V  ',1,   1,1.0000,   0,1.0000,   0,1.0000,   0,1.0000,'            '
 1.00000E-3, 5.00000E-2,   100.00
1.00000,   0.000,   0.000,   200.00,   200.00,   200.00,   0.00,   0.00,   0.00,   0.00,   0.00,   0.00,   0.00,   0.00,   0.00,-1,     -4,   0, 1.10000, 0.90000, 1.05000, 0.95000,  33, 0, 0.00000, 0.00000,  0.000
1.00000,   0.000
0 / END OF TRANSFORMER DATA, BEGIN AREA DATA
0 / END OF AREA DATA, BEGIN TWO-TERMINAL DC DATA
"DCLINE_5_7  ",1,   5.0000,   100.00,   400.00,   0.0000,  0.00000,  0.00000,'I',     0.00,  20,  1.00000
     5,  2, 90.000, 5.0000, 0.0000, 5.0000, 138.00,1.00000,1.00000,1.50000,0.51000,0.00625,     4,  0,     6,     7,'2 ', 0.0000
     7,  2, 90.000, 5.0000, 0.0000, 5.0000, 138.00,1.00000,1.00000,1.50000,0.51000,0.00625,     0,  0,     0,     0,'1 ', 0.0000
0 / END OF TWO-TERMINAL DC DATA, BEGIN VSC DC LINE DATA
'VSCLINE_4_6 ', 1, 0.0000, 1, 1.0, 0, 1.0, 0, 1.0, 0, 1.0
     4, 1, 1, 150.000,1.02000,1000.0000,1.5000,  0.00, 250.00, 1000.00,0.5000, 100.00,-100.00,   3,   0, 50.00
     6, 2, 2, -20.000,1.00000,1000.0000,1.5000,  0.00, 250.00, 1000.00,0.5000, 100.00,-100.00,   0,   0,100.00
0 / END OF VSC DC LINE DATA, BEGIN IMPEDANCE CORRECTION DATA
0 / END OF IMPEDANCE CORRECTION DATA, BEGIN MULTI-TERMINAL DC DATA
0 / END OF MULTI-TERMINAL DC DATA, BEGIN MULTI-SECTION LINE DATA
0 / END OF MULTI-SECTION LINE DATA, BEGIN ZONE DATA
0 / END OF ZONE DATA, BEGIN INTER-AREA TRANSFER DATA
0 / END OF INTER-AREA TRANSFER DATA, BEGIN OWNER DATA
0 / END OF OWNER DATA, BEGIN FACTS DEVICE DATA
'FACTS_7     ',     7,     0,1,     0.000,     0.000,1.00000,   200.000,  9999.000,0.90000,1.10000,1.00000,     0.000, 0.05000,  100.0,   1,   0.00000,   0.00000,0,     0,    0,"            "
0 / END OF FACTS DEVICE DATA, BEGIN SWITCHED SHUNT DATA
     6,'1 ',    1,   0,   1, 1.05000, 0.95000,     7,    0, 100.0,'        ',   10.000,  1,  2,     5.000
     5,'1 ',    3,   0,   1, 1.00000, 1.00000,     2,    0, 100.0,'        ',    0.000,  1,  1,    10.000
0 / END OF SWITCHED SHUNT DATA, BEGIN GNE DATA
0 / END OF GNE DATA, BEGIN INDUCTION MACHINE DATA
0 / END OF INDUCTION MACHINE DATA, BEGIN SUBSTATION DATA
0 / END OF SUBSTATION DATA
Q
